Version 4
SHEET 1 1880 680
WIRE 112 -608 -128 -608
WIRE 304 -608 112 -608
WIRE 496 -608 304 -608
WIRE 112 -544 112 -608
WIRE 496 -400 496 -608
WIRE 592 -400 496 -400
WIRE 992 -400 592 -400
WIRE 1296 -400 992 -400
WIRE 1744 -400 1296 -400
WIRE 496 -304 496 -400
WIRE -128 -288 -128 -608
WIRE 720 -272 624 -272
WIRE 1072 -272 1024 -272
WIRE 1184 -272 1152 -272
WIRE 112 -224 112 -288
WIRE 592 -224 592 -400
WIRE 624 -224 624 -272
WIRE 1376 -224 1328 -224
WIRE 1504 -224 1456 -224
WIRE 1744 -224 1744 -400
WIRE 400 -192 336 -192
WIRE 496 -192 496 -224
WIRE 576 -192 496 -192
WIRE 720 -192 720 -272
WIRE 720 -192 640 -192
WIRE 784 -192 720 -192
WIRE 1024 -192 1024 -272
WIRE 1024 -192 864 -192
WIRE 1328 -160 1328 -224
WIRE 1328 -160 1232 -160
WIRE 304 -144 304 -608
WIRE 336 -144 336 -192
WIRE 992 -144 992 -400
WIRE 1024 -144 1024 -192
WIRE 1296 -144 1296 -400
WIRE 1328 -144 1328 -160
WIRE 112 -112 112 -144
WIRE 288 -112 112 -112
WIRE 400 -112 400 -192
WIRE 400 -112 352 -112
WIRE 752 -112 400 -112
WIRE 912 -112 832 -112
WIRE 976 -112 912 -112
WIRE 1184 -112 1184 -272
WIRE 1184 -112 1040 -112
WIRE 1280 -112 1184 -112
WIRE 1504 -112 1504 -224
WIRE 1504 -112 1344 -112
WIRE 1584 -112 1504 -112
WIRE 1744 -112 1744 -160
WIRE 1744 -112 1664 -112
WIRE 1840 -112 1744 -112
WIRE 112 -80 112 -112
WIRE 1232 -80 1232 -160
WIRE 1744 -80 1744 -112
WIRE 912 -64 912 -112
WIRE 1840 -48 1840 -112
WIRE 496 -32 496 -192
WIRE -128 64 -128 -208
WIRE 112 64 112 -16
WIRE 112 64 -128 64
WIRE 320 64 320 -80
WIRE 320 64 112 64
WIRE 496 64 496 48
WIRE 496 64 320 64
WIRE 608 64 608 -160
WIRE 608 64 496 64
WIRE 912 64 912 16
WIRE 912 64 608 64
WIRE 1008 64 1008 -80
WIRE 1008 64 912 64
WIRE 1232 64 1232 0
WIRE 1232 64 1008 64
WIRE 1312 64 1312 -80
WIRE 1312 64 1232 64
WIRE 1744 64 1744 -16
WIRE 1744 64 1312 64
WIRE 1840 64 1840 16
WIRE 1840 64 1744 64
WIRE 112 96 112 64
FLAG 112 96 0
SYMBOL SpecialFunctions\\varistor 128 -112 R0
SYMATTR InstName A1
SYMBOL res 128 -128 R180
WINDOW 0 36 76 Left 2
WINDOW 3 36 40 Left 2
SYMATTR InstName R1
SYMATTR Value 10k
SYMBOL PowerProducts\\LT317A 112 -416 R90
SYMATTR InstName U1
SYMBOL OpAmps\\LT1010 320 -176 R0
SYMATTR InstName U2
SYMBOL OpAmps\\LT1010 608 -256 R0
SYMATTR InstName U3
SYMBOL OpAmps\\LT1010 1008 -176 R0
SYMATTR InstName U4
SYMBOL OpAmps\\LT1010 1312 -176 R0
SYMATTR InstName U5
SYMBOL voltage -128 -304 R0
WINDOW 123 0 0 Left 0
WINDOW 39 0 0 Left 0
SYMATTR InstName V1
SYMATTR Value 5V
SYMBOL res 512 -208 R180
WINDOW 0 36 76 Left 2
WINDOW 3 36 40 Left 2
SYMATTR InstName R2
SYMATTR Value 49k
SYMBOL res 512 64 R180
WINDOW 0 36 76 Left 2
WINDOW 3 36 40 Left 2
SYMATTR InstName R3
SYMATTR Value 1k
SYMBOL res 880 -208 R90
WINDOW 0 -2 83 VBottom 2
WINDOW 3 -30 40 VTop 2
SYMATTR InstName R4
SYMATTR Value 10k
SYMBOL res 1168 -288 R90
WINDOW 0 0 56 VBottom 2
WINDOW 3 32 56 VTop 2
SYMATTR InstName R5
SYMATTR Value 10k
SYMBOL res 848 -128 R90
WINDOW 0 0 56 VBottom 2
WINDOW 3 32 56 VTop 2
SYMATTR InstName R6
SYMATTR Value 10k
SYMBOL res 928 32 R180
WINDOW 0 36 76 Left 2
WINDOW 3 36 40 Left 2
SYMATTR InstName R7
SYMATTR Value 10k
SYMBOL res 1472 -240 R90
WINDOW 0 0 56 VBottom 2
WINDOW 3 32 56 VTop 2
SYMATTR InstName R8
SYMATTR Value 51k
SYMBOL diode 1760 -16 R180
WINDOW 0 24 64 Left 2
WINDOW 3 24 0 Left 2
SYMATTR InstName D1
SYMBOL diode 1760 -160 R180
WINDOW 0 24 64 Left 2
WINDOW 3 24 0 Left 2
SYMATTR InstName D2
SYMBOL cap 1824 -48 R0
SYMATTR InstName C1
SYMATTR Value 1n
SYMBOL res 1216 -96 R0
SYMATTR InstName R9
SYMATTR Value 1k
SYMBOL res 1680 -128 R90
WINDOW 0 0 56 VBottom 2
WINDOW 3 32 56 VTop 2
SYMATTR InstName R10
SYMATTR Value 4.7k
TEXT -162 120 Left 2 !.tran 0 5 0 0.1
